/*--------------------------------*- C++ -*----------------------------------*\
| =========                 |                                                 |
| \\      /  F ield         | OpenFOAM: The Open Source CFD Toolbox           |
|  \\    /   O peration     | Version:  v2012                                 |
|   \\  /    A nd           | Website:  www.openfoam.com                      |
|    \\/     M anipulation  |                                                 |
\*---------------------------------------------------------------------------*/
FoamFile
{
    version     2.0;
    format      ascii;
    class       dictionary;
    location    "system";
    object      fvSolution;
}
// * * * * * * * * * * * * * * * * * * * * * * * * * * * * * * * * * * * * * //

solvers
{
    "alpha.water_glycerol.*"
    {
        advectionScheme   isoAdvection;
        isoFaceTol      1e-11;
        surfCellTol     1e-8;
        nAlphaBounds    3;
        snapTol         1e-12;
        clip            true;
        reconstructionScheme plicRDF;
        nAlphaSubCycles 2;
        cAlpha          1; // Note: cAlpha is not used by isoAdvector but must
                           // be specified because interfacePropertes object
                           // reads it during construction.
    }
}

PIMPLE
{
    frozenFlow      yes;
    momentumPredictor no;
    nCorrectors     -1;
    nNonOrthogonalCorrectors -1;
    pRefCell        0;
    pRefValue       0;
}

// ************************************************************************* //
