/*--------------------------------*- C++ -*----------------------------------*\
| =========                 |                                                 |
| \\	  /  F ield         | OpenFOAM: The Open Source CFD Toolbox           |
|  \\    /   O peration     | Version:  v2012                                 |
|   \\  /    A nd           | Website:  www.openfoam.com                      |
|    \\/     M anipulation  |                                                 |
\*---------------------------------------------------------------------------*/
FoamFile
{
    version     2.0;
    format	ascii;
    class	dictionary;
    location    "system";
    object	setAlphaFieldDict;
}
// * * * * * * * * * * * * * * * * * * * * * * * * * * * * * * * * * * * * * //

field       "alpha.water_glycerol";
type        sphere;
origin          (0.005 0.005 0.00);//(0.075 0.05 0);
radius          0.0015;//0.02557;

// ************************************************************************* //


