/*--------------------------------*- C++ -*----------------------------------*\
| =========                 |                                                 |
| \\      /  F ield         | OpenFOAM: The Open Source CFD Toolbox           |
|  \\    /   O peration     | Version:  v2012                                 |
|   \\  /    A nd           | Website:  www.openfoam.com                      |
|    \\/     M anipulation  |                                                 |
\*---------------------------------------------------------------------------*/
FoamFile
{
    version     2.0;
    format      ascii;
    class       dictionary;
    location    "constant";
    object      transportProperties;
}
// * * * * * * * * * * * * * * * * * * * * * * * * * * * * * * * * * * * * * //

phases (water_glycerol air);

water_glycerol
{
    transportModel  Newtonian;
    nu              4.2e-05;
    rho             809;
}

air
{
    transportModel  Newtonian;
    nu              1.516e-05;
    rho             1.204;
}


sigma               0.032;
surfaceForces
{
    sigma 0.032;
    surfaceTensionForceModel fitParaboloid;//$STM;
    accelerationModel gravity;
    deltaFunctionModel alphaCSF;
}



// ************************************************************************* //
